25
bare_P_aldehyde_TFSI/bare_P_aldehyde_TFSI_eli_img_1.qcout
N          0.00016       -0.42854       -0.25495
P         -1.52166       -0.26147       -0.72757
P          1.52219       -0.26182       -0.72710
C          2.38393       -1.69278        0.20095
O          1.99743       -0.12296       -2.13643
C          2.18512        1.26309        0.23794
F          3.55328        1.25699        0.27860
F          1.77760        1.32844        1.53950
F          1.81257        2.42604       -0.34151
C         -2.18493        1.26305        0.23797
C         -2.38405       -1.69249        0.19991
O         -1.99639       -0.12261       -2.13707
F         -3.55307        1.25600        0.27930
F         -1.81362        2.42660       -0.34107
F         -1.77681        1.32800        1.53936
O          2.90403       -2.57730       -0.44989
O         -2.90267       -2.57752       -0.45141
C          2.34646       -1.72421        1.71829
C         -2.34941       -1.72304        1.71732
H          3.06164       -0.99148        2.11357
H          2.62459       -2.72324        2.06843
H          1.35713       -1.44145        2.09013
H         -1.36078       -1.43959        2.09051
H         -2.62760       -2.72204        2.06752
H         -3.06550       -0.99038        2.11104
