36

H  -5.919159   -1.235479    0.140702
C  -4.972131   -0.705549    0.080655
C  -4.972103    0.705650   -0.080881
H  -5.919109    1.235605   -0.141043
C  -3.785681    1.405240   -0.155046
H  -3.760834    2.485647   -0.264793
C  -2.551461    0.709699   -0.070973
N  -1.379474    1.398268   -0.084436
C  -2.551488   -0.709659    0.071048
N  -1.379518   -1.398254    0.084703
C  -3.785736   -1.405167    0.154972
H  -3.760931   -2.485574    0.264733
C  -0.242998    0.726597   -0.007537
C  -0.243018   -0.726615    0.007882
 H  1.918719    0.377624    1.657103
 C  2.002672    1.258902    1.028285
 C  0.989649    1.558637    0.102764
 C  1.111550    2.717158   -0.682237
 H  0.318916    2.964367   -1.381959
 C  2.230859    3.541828   -0.563831
 H  2.315265    4.428602   -1.187073
 C  3.236320    3.233104    0.357577
 H  4.106379    3.877594    0.454449
 C  3.113742    2.093793    1.158214
 H  3.883859    1.853077    1.886645
 H  0.318957   -2.964567    1.381986
 C  1.111538   -2.717289    0.682229
 C  0.989593   -1.558677   -0.102630
 C  2.002552   -1.258845   -1.028189
 H  1.918569   -0.377484   -1.656888
 C  3.113604   -2.093732   -1.158298
 H  3.883673   -1.852936   -1.886753
 C  3.236225   -3.233140   -0.357806
 H  4.106269   -3.877630   -0.454817
 C  2.230829   -3.541958    0.563643
 H  2.315271   -4.428804    1.186776
