22

 H -4.522615    1.244741   -0.000101
 C -3.573617    0.714942   -0.000077
 C -3.573618   -0.714942   -0.000053
 H -4.522616   -1.244740   -0.000094
 C -2.395727   -1.417418   -0.000059
 H -2.371522   -2.503276   -0.000059
 C -1.145379   -0.723903   -0.000057
 N -0.000025   -1.423453    0.000088
 C -1.145381    0.723904    0.000086
 N -0.000023    1.423451    0.000028
 C -2.395726    1.417418    0.000005
 H -2.371518    2.503277    0.000005
 C  1.145336   -0.724008    0.000152
 C  1.145334    0.723999    0.000147
 C  2.395731   -1.417463    0.000049
 C  3.573654   -0.714931   -0.000128
 C  3.573642    0.714933   -0.000087
 C  2.395718    1.417469    0.000064
 H  2.371832   -2.503308    0.000035
 H  4.522573   -1.244840   -0.000185
 H  4.522556    1.244857   -0.000507
 H  2.371834    2.503311   -0.000163
