21
 
 C   -3.560439   -0.070098    0.000009
 C   -2.652432   -1.108316   -0.000014
 C   -1.262069   -0.830877   -0.000018
 C   -0.817922    0.531199    0.000014
 C   -1.775449    1.580241    0.000031
 C   -3.120597    1.280534    0.000028
 H   -4.626173   -0.282810    0.000013
 H   -2.966982   -2.147773   -0.000032
 H   -1.414262    2.604594    0.000049
 H   -3.855522    2.080975    0.000043
 C    1.355633   -0.183728   -0.000028
 C    0.908048   -1.541346   -0.000051
 N    0.509770    0.831041    0.000025
 N   -0.366912   -1.862962   -0.000047
 H    1.638925   -2.344976   -0.000047
 C    2.834055    0.114764    0.000035
 O    3.635347   -0.808679    0.000135
 C    3.266463    1.562461   -0.000087
 H    2.866289    2.083118   -0.877478
 H    2.865837    2.083468    0.876866
 H    4.357364    1.607289    0.000148
